**$ENCRYPTED_LIB
**$INTERFACE
* PSpice Model Editor - Version 16.2.0
*$
* LM25085
*****************************************************************************
*  (C) Copyright 2012 Texas Instruments Incorporated. All rights reserved.
*****************************************************************************
** This model is designed as an aid for customers of Texas Instruments.
** TI and its licensors and suppliers make no warranties, either expressed
** or implied, with respect to this model, including the warranties of 
** merchantability or fitness for a particular purpose.  The model is
** provided solely on an "as is" basis.  The entire risk as to its quality
** and performance is with the customer
*****************************************************************************
*
** Released by: WEBENCH Design Center, Texas Instruments Inc.
* Part: LM25085
* Date: 17JAN2013
* Model Type: Transient
* Simulator: PSPICE
* Simulator Version: 16.2.0.s003
* EVM Order Number: AN-1905 
* EVM Users Guide: SNVA375A,REVISED Nov 2008
* Datasheet: SNVS593G,REVISED May 2012 
*
* Model Version: Final 1.00
*
******************************************************************************************
*
* Updates:
*
* Final 1.00   
* Release to Web.
******************************************************************************************
.SUBCKT LM25085_TRANS IADJ RON FB GND ISEN PGATE VCC VIN
*FAMILY ANALOG ANALOG ANALOG ANALOG ANALOG ANALOG ANALOG ANALOG
$CDNENCSTART
eee8c5c7a2bc4b01f045f303678664e7916da0bae22e8cb0bba041dd67c69ce448ea70148a9ac1670c8926c1ac5057c8ccfcd77bf87ca9dc186e1cdf7727665e
11fc0734daf927d2b09e2116325bc9f175740271596acdb0608fba515dabb42127c5fecd5ca4eecb49353e93fbfda1dba702ff8f3e3a1b84b2a791177ab89810
0511689503ec5a01ee266139ececc56849e0ed484b501602879615d3497ec734de4bd95888ad74a06979814b01d82bd198581faa56027536a2514940893ba777
63a8407a574b1632bcafb35488b328f671707ca6c7cdc2c0e29ac6821870ef1400aca9efddcea9708af2d651367c16191d041936573f63b008db03871daaf0ee
a31e3f7cd8f6d5fce3e957f05b3685b1a7106e6a3e78b981d49b33970dd76699f128bdb7ccce2792193403e6113155e21d55dd57f10b33540dfd6b39174e9e27
e275f84b66d8844cb700c9f61b9dbbf61995ff2c3ed72e0fdcc4fd439171a987b05cc6262f0d3098a78dca305af7cf10daf67458bbe5e4234348db98125f1cb1
d7d56c68ceb7ef22a434cb3c571aa35f5414ce0c3c28bd7f2409375cfb281a94307bffcdc8454db22e15c88be894c705b09e2116325bc9f10b0f45ba85ec6445
7bc6e6d94668b63b956060a5406a5da045d3402ef00f0f9c6348b89541167bf1967cbbb9623b9226644126c9831a96bdb6418aab31ad7c572412ea644c229fb7
b911123306761f261b35f5f494349590d2c859d3504b3692cb810b6b3927472226c0399393500d95b09e2116325bc9f175740271596acdb04c741f2f23b1937c
2b2103bd8ad5a0c011f3dca2841d0f33dbf0264b29e4cbf22098e960c93a0174ec0aed00d38d7d74fe219797a812a872e71f71e18758417182ebd0835b0cb418
f9939de1ba29045cbd33688da1cf94d1c395cea798b7b508e29805c6dc71e6e0f128bdb7ccce2792193403e6113155e21d55dd57f10b33540dfd6b39174e9e27
8d4378728875d477656b58de0cbce447e3d7e0f93ed3c08c51bb301cd02c77541ba7bab3818dc5dc0c84c1fb1516e7a91d041936573f63b008db03871daaf0ee
63d6c84b186b027cb6901e218d6a1910344ad8a31a2bfbd56e5de2696794077439b91a21b23868a5b09e2116325bc9f175740271596acdb04c741f2f23b1937c
9fe6986c4274fa0f8f48948c0500156934ed1cbf6baf0c90c71a3890eae8af6348f52b10544a0a450566595875cbae152decee6e7767e9a3205919989d9dd690
88fca4f51dd6ded370e5eb1b1423d8a4a827163d35d229bb710f626c2faf14a61fc7de3fb6efec13af34ed221504c3b7b27188a0da5cd66ac38bd950a9dd82e0
337070e31bc3d305306af6c24b66f2f4c627fa95750e586a7a2cf9b0bb2dd5c3710f626c2faf14a61fc7de3fb6efec13af34ed221504c3b71551b5df9a29e077
9174f55155f076f9b933cea30a4a745a5414ce0c3c28bd7ffa19cc529b438755307bffcdc8454db21542a01b852a823cf128bdb7ccce2792e63eb10f30aa9120
9b698bcf782778dbad38d0a156d4adc053650e3e8ffb905a724d69afd1194b3a1fc7de3fb6efec13af34ed221504c3b7b27188a0da5cd66ac38bd950a9dd82e0
8d4378728875d477808b795461e939a52e246349d39fc44e541e3fa13c8d396ca451b42bf8ab0e8b1fc7de3fb6efec13af34ed221504c3b71551b5df9a29e077
c387ad0c137af66a7e9f8fb1dcc1537703c482f9c9e9a760b09e2116325bc9f175740271596acdb0608fba515dabb42127c5fecd5ca4eecbe33d764c215a1919
1992edd6cdc951b7da5cf57c9ba9eb3dc395cea798b7b508605c995a684212481d041936573f63b0b99c15e1dab3cfdb9be6127308a4603213d26b079d9c34b1
3897192afa30b1ab654e210da8e0b091879615d3497ec734de4bd95888ad74a06979814b01d82bd198581faa560275364df96c340fe2d5c33405ef4e01d21b15
31a88f1db69a3a957ef9a12c3e063084879615d3497ec734de4bd95888ad74a06979814b01d82bd198581faa560275364df96c340fe2d5c33405ef4e01d21b15
0ad15127ed37cdc5a38c6c2a998652fb3043a8f54fa32cd7e81241c40d75ee8bb09e2116325bc9f175740271596acdb0608fba515dabb4217a101c70875495c8
8d4378728875d47798d778ee200e3c632e246349d39fc44e6352aecd78c2bb54ee92a5ae68fc70f4dcc4fd439171a987b05cc6262f0d30986880dffa15a4c7a5
db208dff9eee6a0c28a844c53ceee484a451b42bf8ab0e8b1fc7de3fb6efec13af34ed221504c3b7b27188a0da5cd66aaf1d7ce5a254b798635c91d95b331496
b4ed52f1d8b2c53e6f6db531730e0091ee0c814e17fb264c34ed1cbf6baf0c90c71a3890eae8af6348f52b10544a0a450566595875cbae15ca62d8c11a888752
e8afb82e1c929c30c3c3fda3d002d386075274a4da4d6084f498618bcd7948c8879615d3497ec734de4bd95888ad74a06979814b01d82bd13ac050840cc5118b
3cf9a7e9196de2d3a434cb3c571aa35f5414ce0c3c28bd7f9ce2637026a6e5c0a5686e3832d5509fc4f1721eb8fa5c5d9a376fb139cfb00a086424ac5be87370
45530926150e2a804adc2bf3703674ebb09e2116325bc9f175740271596acdb0608fba515dabb42127c5fecd5ca4eecb49353e93fbfda1dbbebda8502fb3af09
446afe0ace5b51db46786f33636cb274884d5fc5ff2e91781fc7de3fb6efec13af34ed221504c3b7b27188a0da5cd66aaf1d7ce5a254b798635c91d95b331496
140e8c7085cb15628d8562bc27901fd0f128bdb7ccce2792193403e6113155e21d55dd57f10b3354805604912ff1c905ad5c02caa0ee5fdbf11a397184e1c48f
60500785be649fe9bfb8cb0c3d0c72ca383778e5abebd89c8c7d9b303bb9640d78cb94952e8cd20f155acc876d7cbbe5869697ce9bb396ce0fe0b2038d33fe38
dcbe3d4feb694d72c9a7f6a0e1159548879615d3497ec734de4bd95888ad74a06979814b01d82bd198581faa560275364df96c340fe2d5c33405ef4e01d21b15
402803fbbe564e44187b33931da4912addf553342a79925f78cb94952e8cd20f155acc876d7cbbe5517caed45e1e14ae879615d3497ec734ff5ab25c979a3a84
705851d83de57d782a852cfdd5171ef41fc7de3fb6efec13af34ed221504c3b7b27188a0da5cd66aaf1d7ce5a254b798dd8c3c3ecb4ff84667a1e23b29acee7c
71f34082027e216ee99a8c89f0dc6599f1bddf73fb9311a831d5c50dfd0e9dbdf128bdb7ccce2792193403e6113155e21d55dd57f10b33540dfd6b39174e9e27
b885ef70cda61296e41d8ff35c7da9d93bfc559f5fe41c5278eb644a7166dfbd42967dd897366845dcc4fd439171a987b05cc6262f0d30986880dffa15a4c7a5
2894f0139fa8585189d3f19f441de2ee96836d810bdba0321fc7de3fb6efec13af34ed221504c3b7b27188a0da5cd66aaf1d7ce5a254b798635c91d95b331496
8d4378728875d47700744895d95ba26a640973bce8e6e5ba9a0b98b5b03a496cf03dc6cdd4318d47372be5d98cdd6c71879615d3497ec734ff5ab25c979a3a84
5b764f21061143af51be638312065e231d041936573f63b0b99c15e1dab3cfdb9be6127308a460321c66afede3b04e70018ef71e0677f397edf1aa484284766b
8d4378728875d4775b1bc9625ac4bb765207391cb021066dd6fbc9e11d26808b1fc7de3fb6efec13af34ed221504c3b7b27188a0da5cd66ac38bd950a9dd82e0
301ac7091e62d6f4148b76db6e8c6497b09e2116325bc9f175740271596acdb0608fba515dabb42127c5fecd5ca4eecb49353e93fbfda1dbbebda8502fb3af09
86fe991c035da86a5201437efe2dc3d55d30eccf69e1a1df879615d3497ec734de4bd95888ad74a06979814b01d82bd198581faa56027536a2514940893ba777
20f090bd1a5f7c37a28e1e85e75ce872019a150a54fb5380710f626c2faf14a61fc7de3fb6efec13af34ed221504c3b7b27188a0da5cd66ac38bd950a9dd82e0
3dfac87e4207d3e7596f4a82c98996ff5d60b9e7d772690d377c93d8b4fa368e1d041936573f63b0b99c15e1dab3cfdb9be6127308a4603213d26b079d9c34b1
c244b3a826ac18ac6676497ceb6d262cdbf0264b29e4cbf2494501b14c064f492f30d2d4a28d768834ed1cbf6baf0c90c71a3890eae8af638268c338291726f1
a80bd0a244c46e8609fadcd088c7d3e6c5b621df365c1c160f090d5b57717962b6418aab31ad7c57225ccf8dcaf66131dbf053cdabe8dd7a4d06d6ad92ebcbb7
b261694a9ed94babe18b703a0a3aed1048f8324219129f78a5eabd7b7a457770a7eff2c256f65fb4b09e2116325bc9f175740271596acdb04c741f2f23b1937c
980755a58d393df5fe36535a233351f5903a99ed5cc462eadcc4fd439171a987b05cc6262f0d3098a78dca305af7cf10daf67458bbe5e4234348db98125f1cb1
9c80a5cc4c67e905954b03e2dd8dfad6423c9e8b61b8f91d879615d3497ec734de4bd95888ad74a06979814b01d82bd198581faa56027536a2514940893ba777
8d4378728875d477e364ad6ca19ac57679e72fd53e1036bdd89528b7bf266506dcc4fd439171a987b05cc6262f0d3098a78dca305af7cf10fba5a4fd8a117cdd
bc1544d97cea8d3d954b03e2dd8dfad63f730f3e2357fdcdbbf426cc4d4c1b4eb3a50e6eca47140b9894c1140acaefeddcc4fd439171a987fd32ae3e64825156
d77245ce0a10324e39214c30c0831c15bbc71c20cb715068b6418aab31ad7c57225ccf8dcaf66131dbf053cdabe8dd7ad174ef4eb1ddadf682b989a66a5e8d15
f7f6c9cb4c08904747fd194225375f6af128bdb7ccce2792193403e6113155e21d55dd57f10b3354805604912ff1c905ad5c02caa0ee5fdbf11a397184e1c48f
51381ae6c1ffdb7039214c30c0831c15bbc71c20cb715068b6418aab31ad7c57225ccf8dcaf66131dbf053cdabe8dd7ad174ef4eb1ddadf682b989a66a5e8d15
00495613c3c46d23a0bd1241223ddd59f128bdb7ccce2792193403e6113155e21d55dd57f10b3354805604912ff1c905ad5c02caa0ee5fdbf11a397184e1c48f
c0c36cb553f78e12120eaf1cf2353f5982460279e888a215b8d5cb62b83fdf15f0675b26e099c3a7dcc4fd439171a987b05cc6262f0d30986880dffa15a4c7a5
414035c190eec13fe372339c79780caa644126c9831a96bdb6418aab31ad7c57225ccf8dcaf66131dbf053cdabe8dd7ad174ef4eb1ddadf682b989a66a5e8d15
b942f8da28c4d637fc2f6ce5cdb5e9aaa2f5a95c17d276c2dcc4fd439171a987b05cc6262f0d3098a78dca305af7cf10daf67458bbe5e4234348db98125f1cb1
3a5b974243e42496b0943ef759bac4752c7941b8a7f84e0b1d041936573f63b0b99c15e1dab3cfdb9be6127308a460321c66afede3b04e70b1c63cc4c05db382
58a261bd92c5feed3f686fa71dce70e12505a382b4775763f128bdb7ccce2792193403e6113155e21d55dd57f10b3354805604912ff1c90522fc9237468c5f87
4510b3102e26c4a26676497ceb6d262cdbf0264b29e4cbf2291e9e3ff0faaff4d98761a678169ea6284917e082b6719fc5b72400ec81679f18052bd409beafec
7bc1774e764830d7f128bdb7ccce2792193403e6113155e21d55dd57f10b3354805604912ff1c905ad5c02caa0ee5fdb6c3785c13ac276db97008cd94257a53c
$CDNENCFINISH
.ENDS
*$
********************************************************************************
*********Subcircuit for INVERTER INVB0***************
*******************************************************************************
.SUBCKT INVB_0 1  2
*           IN OUT
$CDNENCSTART
eee8c5c7a2bc4b01f045f303678664e7916da0bae22e8cb0bba041dd67c69ce448ea70148a9ac1670c8926c1ac5057c8ccfcd77bf87ca9dc186e1cdf7727665e
a3925d243574bd9e71707ca6c7cdc2c0cc06d9b061a08fd4f216b6f7473660b185514ac77b8512f8df3aaad370cab62ce71f71e18758417182ebd0835b0cb418
cac4c15809a64712b09e2116325bc9f175740271596acdb0608fba515dabb42127c5fecd5ca4eecb49353e93fbfda1dba702ff8f3e3a1b84b2a791177ab89810
11e4efdd30a82c0f46536cf40035253b879615d3497ec734de4bd95888ad74a06979814b01d82bd198581faa560275364df96c340fe2d5c33405ef4e01d21b15
$CDNENCFINISH
.ENDS
*$
******************************************************
******Subcircuit for AND2B**********
******************************************************
.SUBCKT AND2B_0 1 2 3 
*            A B OUT
$CDNENCSTART
eee8c5c7a2bc4b01f045f303678664e7916da0bae22e8cb0bba041dd67c69ce448ea70148a9ac1670c8926c1ac5057c8ccfcd77bf87ca9dc186e1cdf7727665e
8ee46724d4d57d7d71707ca6c7cdc2c0b12aad6723dc4bdadf956d146db823c111cf11b19671421d4bbf5fa8614861d0dcc4fd439171a987fd32ae3e64825156
ed872a1db40d3a43b09e2116325bc9f175740271596acdb0608fba515dabb42127c5fecd5ca4eecb49353e93fbfda1dba702ff8f3e3a1b84b2a791177ab89810
a5760905ba0e95ed46536cf40035253b879615d3497ec734de4bd95888ad74a06979814b01d82bd198581faa560275364df96c340fe2d5c33405ef4e01d21b15
$CDNENCFINISH
.ENDS
*$
*******************************************************
********Subcircuit for COMPWDELEN0**********
********************************************************
.SUBCKT COMPWDELEN_0 1 2 3 EN
*               + - OUT
$CDNENCSTART
eee8c5c7a2bc4b01f045f303678664e7916da0bae22e8cb0bba041dd67c69ce448ea70148a9ac1670c8926c1ac5057c8ccfcd77bf87ca9dc186e1cdf7727665e
8ee46724d4d57d7d71707ca6c7cdc2c0e9cfb1e17a5a7f77e83114b62315e9e5b0773a6eb83dc422a0e720b93f8bd30c34ed1cbf6baf0c90001cf9981819492a
688507c2e5715d6701b8794aec1ae2085928c5ddaa16c4c81c6e91fac17cfbdfdcc4fd439171a987b05cc6262f0d3098a78dca305af7cf10fba5a4fd8a117cdd
af7200756409db2db09e2116325bc9f175740271596acdb0608fba515dabb42127c5fecd5ca4eecb49353e93fbfda1dba702ff8f3e3a1b84b2a791177ab89810
5ea8b78629a8bbe971707ca6c7cdc2c074d172df7f2638dc485f233091c239aee71f71e187584171b6418aab31ad7c57225ccf8dcaf661311f2aced11c559042
$CDNENCFINISH
.ENDS
*$
*****************************************************************
********Subcircuit for COMPWDELEN1************
******************************************************************
.SUBCKT COMPWDELEN_1 1 2 3 EN
*               + - OUT
*B1 4 0 V=V(EN) < 1 ? 0 : V(1) > V(2) ? 5 : 0
$CDNENCSTART
eee8c5c7a2bc4b01f045f303678664e7916da0bae22e8cb0bba041dd67c69ce448ea70148a9ac1670c8926c1ac5057c8ccfcd77bf87ca9dc186e1cdf7727665e
8ee46724d4d57d7d71707ca6c7cdc2c0e9cfb1e17a5a7f77e83114b62315e9e5b0773a6eb83dc422a0e720b93f8bd30c34ed1cbf6baf0c90001cf9981819492a
688507c2e5715d6701b8794aec1ae208ea7bad53107a7c1544ca5a2f719c09cd1fc7de3fb6efec13af34ed221504c3b7b27188a0da5cd66ac38bd950a9dd82e0
af7200756409db2db09e2116325bc9f175740271596acdb0608fba515dabb42127c5fecd5ca4eecb49353e93fbfda1dba702ff8f3e3a1b84b2a791177ab89810
*B2 3 0 V=V(5) < 0 ? 0 : V(5)
5ea8b78629a8bbe971707ca6c7cdc2c074d172df7f2638dc485f233091c239aee71f71e187584171b6418aab31ad7c57225ccf8dcaf661311f2aced11c559042
$CDNENCFINISH
.ENDS
*$
****************************************************************
*******Subcircuit for Latch Nand************
****************************************************************
.SUBCKT LATCHNAND_0  3 4 1 2
*                  S R Q QN
$CDNENCSTART
eee8c5c7a2bc4b01f045f303678664e7916da0bae22e8cb0bba041dd67c69ce448ea70148a9ac1670c8926c1ac5057c8ccfcd77bf87ca9dc186e1cdf7727665e
7241340765525e85dc6ce134586b0f2ce847dda77d5f9443b6418aab31ad7c57225ccf8dcaf66131dbf053cdabe8dd7ad174ef4eb1ddadf682b989a66a5e8d15
0dd7f0650e132a0fdc6ce134586b0f2ce847dda77d5f9443b6418aab31ad7c57225ccf8dcaf66131dbf053cdabe8dd7ad174ef4eb1ddadf682b989a66a5e8d15
$CDNENCFINISH
.ENDS
*$
*****************************************************
******** Subcircuit for NAND2A1****************
*****************************************************
.SUBCKT NAND2A1 1 2 3
*             A B OUT
$CDNENCSTART
eee8c5c7a2bc4b01f045f303678664e7916da0bae22e8cb0bba041dd67c69ce448ea70148a9ac1670c8926c1ac5057c8ccfcd77bf87ca9dc186e1cdf7727665e
8ee46724d4d57d7d0b8ab8cb46b2813421c493a86d4a4f3fadbbdd9511934b0060acbd8fb3408a6823b6778cc8587d89879615d3497ec734ff5ab25c979a3a84
ed872a1db40d3a43b09e2116325bc9f175740271596acdb0608fba515dabb42127c5fecd5ca4eecb49353e93fbfda1dba702ff8f3e3a1b84b2a791177ab89810
a5760905ba0e95ed46536cf40035253b879615d3497ec734de4bd95888ad74a06979814b01d82bd198581faa560275364df96c340fe2d5c33405ef4e01d21b15
$CDNENCFINISH
.ENDS
*$
*****************************************************
******** Subcircuit for NAND2A2****************
*****************************************************
.SUBCKT NAND2A2 1 2 3
*             A B OUT
$CDNENCSTART
eee8c5c7a2bc4b01f045f303678664e7916da0bae22e8cb0bba041dd67c69ce448ea70148a9ac1670c8926c1ac5057c8ccfcd77bf87ca9dc186e1cdf7727665e
8ee46724d4d57d7d0b8ab8cb46b2813421c493a86d4a4f3fadbbdd9511934b0060acbd8fb3408a6823b6778cc8587d89879615d3497ec734ff5ab25c979a3a84
ed872a1db40d3a43b09e2116325bc9f175740271596acdb0608fba515dabb42127c5fecd5ca4eecb49353e93fbfda1dba702ff8f3e3a1b84b2a791177ab89810
a5760905ba0e95ed46536cf40035253b879615d3497ec734de4bd95888ad74a06979814b01d82bd198581faa560275364df96c340fe2d5c33405ef4e01d21b15
$CDNENCFINISH
.ENDS
*$
*******************************************************
*****************************************************
******** Subcircuit for NAND2B****************
*****************************************************
.SUBCKT NAND2B_0 1 2 3
*             A B OUT
$CDNENCSTART
eee8c5c7a2bc4b01f045f303678664e7916da0bae22e8cb0bba041dd67c69ce448ea70148a9ac1670c8926c1ac5057c8ccfcd77bf87ca9dc186e1cdf7727665e
8ee46724d4d57d7d0b8ab8cb46b2813421c493a86d4a4f3f9e22e37328b0b66f60acbd8fb3408a6823b6778cc8587d89879615d3497ec734ff5ab25c979a3a84
ed872a1db40d3a43b09e2116325bc9f175740271596acdb0608fba515dabb42127c5fecd5ca4eecb49353e93fbfda1dba702ff8f3e3a1b84b2a791177ab89810
a5760905ba0e95ed46536cf40035253b879615d3497ec734de4bd95888ad74a06979814b01d82bd198581faa560275364df96c340fe2d5c33405ef4e01d21b15
$CDNENCFINISH
.ENDS
*$
*******************************************************
******Subcircuit for Switch******************
*******************************************************
.SUBCKT SSWITCH_0 1 2 3   4
*CONNECTIONS    + - NC+ NC-
*PARAMETERS: RON ON RESISTANCE IN OHMS, ROFF OFF RESISTANCE IN OHMS
* VON ON CURRENT IN AMPS, VOFF OFF CURRENT IN AMPS
* IF V(3,4) > VON THEN RSWITCH=RON, IF V(3,4) < VOFF THEN RSWITCH=ROFF, ELSE
* RSWITCH WILL SMOOTHLY TRANSISTION BETWEEN THE ON AND OFF STATES
$CDNENCSTART
eee8c5c7a2bc4b01f045f303678664e7916da0bae22e8cb0bba041dd67c69ce448ea70148a9ac1670c8926c1ac5057c8ccfcd77bf87ca9dc186e1cdf7727665e
3fcbf059485558dbcc5fb630d8d3d65813da18f5ca3cc6581fc7de3fb6efec13af34ed221504c3b7b27188a0da5cd66aaf1d7ce5a254b798635c91d95b331496
42ab3a9c368d14fff4148093fd23fa22cf069a5624a7d2909d759554c44543f69cc743998d7a269533a3e0a510c3d38e2e18f9d50a9655e8bc39d0d6f4195e05
ef269de50f90227134ed1cbf6baf0c90c71a3890eae8af6348f52b10544a0a450566595875cbae152decee6e7767e9a3c2ad54b0b07b9694dc448f19d9241354
$CDNENCFINISH
.ENDS
*$
***********************************************************
**********Subcircuit for COMPWDEL**************
***********************************************************
.SUBCKT COMPWDEL_0 1 2 3 PARAMS: TD=100N
*               + - OUT
$CDNENCSTART
eee8c5c7a2bc4b01f045f303678664e7916da0bae22e8cb0bba041dd67c69ce448ea70148a9ac1670c8926c1ac5057c8ccfcd77bf87ca9dc186e1cdf7727665e
8ee46724d4d57d7d71707ca6c7cdc2c08f70475023dd447b887be4486a984d1be71f71e187584171b6418aab31ad7c57225ccf8dcaf661311f2aced11c559042
688507c2e5715d6701b8794aec1ae2083e11559d316a8bc334ed1cbf6baf0c90c71a3890eae8af6348f52b10544a0a450566595875cbae15ca62d8c11a888752
af7200756409db2db09e2116325bc9f175740271596acdb0608fba515dabb42127c5fecd5ca4eecb49353e93fbfda1dba702ff8f3e3a1b84b2a791177ab89810
5ea8b78629a8bbe971707ca6c7cdc2c074d172df7f2638dc485f233091c239aee71f71e187584171b6418aab31ad7c57225ccf8dcaf661311f2aced11c559042
$CDNENCFINISH
.ENDS
*$
*********************************************************************
************ Subcircuit for NOR4B*****************
**********************************************************************
.SUBCKT NOR4B_0 1 2 3 4 5 
*            A B C D OUT
*B1 6 0 V= ~(V(1)|V(2)|V(3)|V(4))
$CDNENCSTART
eee8c5c7a2bc4b01f045f303678664e7916da0bae22e8cb0bba041dd67c69ce448ea70148a9ac1670c8926c1ac5057c8ccfcd77bf87ca9dc186e1cdf7727665e
d8bb7fb05c18b1bb9913139925746ab077a720f80a7c4ba7eb0b4f05c0dbf823422ff8e56384428c47ca524f23fd17dcadbbdd9511934b0015dda61170349c65
7e73ed8e6506c55776e345c2a042d4f434ed1cbf6baf0c90c71a3890eae8af6348f52b10544a0a450566595875cbae152decee6e7767e9a3205919989d9dd690
5b0c1bc9d493e084b09e2116325bc9f175740271596acdb0608fba515dabb42127c5fecd5ca4eecb49353e93fbfda1dba702ff8f3e3a1b84b2a791177ab89810
ba2dfcde1cdc659b46536cf40035253b879615d3497ec734de4bd95888ad74a06979814b01d82bd198581faa560275364df96c340fe2d5c33405ef4e01d21b15
$CDNENCFINISH
.ENDS
*$
**************************************
***** Sub Circuit for 2-NOR *******
**************************************
.SUBCKT NOR2B_0 1 2 3 PARAMS: VHIGH = 5 VLOW = 0 VTHLOW = 0.6 VTHHIGH = 3
*            A B OUT
$CDNENCSTART
eee8c5c7a2bc4b01f045f303678664e7916da0bae22e8cb0bba041dd67c69ce448ea70148a9ac1670c8926c1ac5057c8ccfcd77bf87ca9dc186e1cdf7727665e
8ee46724d4d57d7d9913139925746ab077a720f80a7c4ba77904cbde57c768214e25c815fd080ee637f0cc7c1898f31bd60d710c65fd54d42ef49a52598dd081
ed872a1db40d3a43b09e2116325bc9f175740271596acdb0608fba515dabb42127c5fecd5ca4eecb49353e93fbfda1dba702ff8f3e3a1b84b2a791177ab89810
a5760905ba0e95ed46536cf40035253b879615d3497ec734de4bd95888ad74a06979814b01d82bd198581faa560275364df96c340fe2d5c33405ef4e01d21b15
$CDNENCFINISH
.ENDS
*$
* created using Model Editor release 16.2.0 on 12/22/12 at 17:50
*DEVICE=MBRB2060CT,D
.subckt MBRB2060CT AN CAT 
+ params:
+ AREA=1.0
+ IS=9e-6
+ RS=60e-3
+ N=1.442
+ CJO=470e-12
+ M=0.8
+ EG=0.69
+ XTI=2
+ BV=200
+ IBV=1e-6
$CDNENCSTART
eee8c5c7a2bc4b01f045f303678664e7916da0bae22e8cb0bba041dd67c69ce448ea70148a9ac1670c8926c1ac5057c8ccfcd77bf87ca9dc186e1cdf7727665e
2bf1368f0c8dd4b9e598dbbf93d5e2a456c66aeba3cca5bc3da509a19e3d598302f13ee2015cd324dcc4fd439171a987b05cc6262f0d30986880dffa15a4c7a5
907b18424c62896b5d88c10924050be2b09e2116325bc9f175740271596acdb0608fba515dabb42127c5fecd5ca4eecb49353e93fbfda1dbbebda8502fb3af09
8efc1326616cf275e71f71e187584171b6418aab31ad7c57225ccf8dcaf66131dbf053cdabe8dd7ad174ef4eb1ddadf64104ab2f48b8943d4897983ad6ed9424
79027e9f3c81c7b7e71f71e187584171b6418aab31ad7c57225ccf8dcaf66131dbf053cdabe8dd7ad174ef4eb1ddadf64104ab2f48b8943d4897983ad6ed9424
dc2f07669cc1aaee34ed1cbf6baf0c90c71a3890eae8af6348f52b10544a0a450566595875cbae152decee6e7767e9a3c2ad54b0b07b9694dc448f19d9241354
8568c637bacf3e1a5a53a451682542c3dcc4fd439171a987b05cc6262f0d3098a78dca305af7cf10daf67458bbe5e423ecc3ddbcd6ee3b1c57f0963c8d997eb2
6a41149a77ddde8434ed1cbf6baf0c90c71a3890eae8af6348f52b10544a0a450566595875cbae152decee6e7767e9a3c2ad54b0b07b9694dc448f19d9241354
41dbf92e3c92957be71f71e187584171b6418aab31ad7c57225ccf8dcaf66131dbf053cdabe8dd7ad174ef4eb1ddadf64104ab2f48b8943d4897983ad6ed9424
92da573c53b6241ada085fb78e345888dcc4fd439171a987b05cc6262f0d3098a78dca305af7cf10daf67458bbe5e423ecc3ddbcd6ee3b1c57f0963c8d997eb2
a648875b40c1befbe71f71e187584171b6418aab31ad7c57225ccf8dcaf66131dbf053cdabe8dd7ad174ef4eb1ddadf64104ab2f48b8943d4897983ad6ed9424
ffc6750a22b0d048936ffcac8a55c72cdcc4fd439171a987b05cc6262f0d3098a78dca305af7cf10daf67458bbe5e423ecc3ddbcd6ee3b1c57f0963c8d997eb2
$CDNENCFINISH
.ends MBRB2060CT
*$
******************************************************************************************
* WB_POWER_P_MOSFET SPICE MODEL
*
******************************************************************************************
* GENERIC 60V, 3A P-CHANNEL MOSFET MODEL
* MODIFIED FAIRCHILD FDC5614P MODEL
.SUBCKT P_MOSFET 20 10 30
*               TERMINALS:  D  G  S
* 20=DRAIN 10=GATE 30=SOURCE 50=VTEMP
$CDNENCSTART
eee8c5c7a2bc4b01f045f303678664e7916da0bae22e8cb0bba041dd67c69ce448ea70148a9ac1670c8926c1ac5057c8ccfcd77bf87ca9dc186e1cdf7727665e
aadd5631bbb4e83a439ef410dcc20718dcc4fd439171a987b05cc6262f0d3098a78dca305af7cf10daf67458bbe5e423ecc3ddbcd6ee3b1c57f0963c8d997eb2
0057aa61cc16a9f574f469b3dfb2f85edcc4fd439171a987b05cc6262f0d3098a78dca305af7cf10daf67458bbe5e423ecc3ddbcd6ee3b1c57f0963c8d997eb2
046fcb7f34414fe5cf87ba964ad691ad1d041936573f63b0b99c15e1dab3cfdb9be6127308a460321c66afede3b04e70018ef71e0677f397edf1aa484284766b
3498893fa7e5fe3a97dbfb336694160d7e2691789bc7c21b009dfbfbdc872145dcc4fd439171a987b05cc6262f0d3098a78dca305af7cf10fba5a4fd8a117cdd
d7072740a938f0e7accbdf0c3980ccf0eee57441e0a714c615a6fdc9a72bfcdef128bdb7ccce2792193403e6113155e21d55dd57f10b33540dfd6b39174e9e27
d2803767c61bb1161e8308ff02dbc8dff9ca8434a91f2e2b3f7efc0bad68f4f8f128bdb7ccce2792193403e6113155e21d55dd57f10b33540dfd6b39174e9e27
6a66afda4eba47ad68691efcddda3078f128bdb7ccce2792193403e6113155e21d55dd57f10b3354805604912ff1c905ad5c02caa0ee5fdbf11a397184e1c48f
7b072e97f55da923acc88a9d0c63c1a5879615d3497ec734de4bd95888ad74a06979814b01d82bd198581faa560275364df96c340fe2d5c33405ef4e01d21b15
296eaccecdce60fcb22b97a48aa6c96f1d041936573f63b0b99c15e1dab3cfdb9be6127308a460321c66afede3b04e70018ef71e0677f397edf1aa484284766b
d7072740a938f0e728ceeac8158221e0acb97254af36b9c086b884744d7fd3528d808b2ee30ae13052e0bbe84d549383dcc4fd439171a987fd32ae3e64825156
0aee91d072b3baf49123ca15340ee20803db7f2c802ec859b6418aab31ad7c57225ccf8dcaf66131dbf053cdabe8dd7ad174ef4eb1ddadf682b989a66a5e8d15
d7072740a938f0e7d3ce188f717d2398b14d247521b407825d5f689c2026eadeba61afbd90f47c514725d91f8519c2c3bc4d11cab86afd804f76b9465b4db162
3c1b7188b91c1ac3661c25c87b7098a7f128bdb7ccce2792193403e6113155e21d55dd57f10b3354805604912ff1c905ad5c02caa0ee5fdbf11a397184e1c48f
a12ab5d04b5651a2300bf7b4beef2fa41d041936573f63b0b99c15e1dab3cfdb9be6127308a460321c66afede3b04e70018ef71e0677f397edf1aa484284766b
4d0cf8311de8e9086860039cae1024301d041936573f63b0b99c15e1dab3cfdb9be6127308a460321c66afede3b04e70018ef71e0677f397edf1aa484284766b
acfc38bafda1e5699767c413eaf75619b09e2116325bc9f175740271596acdb0608fba515dabb42127c5fecd5ca4eecb49353e93fbfda1dbbebda8502fb3af09
e2e533a672927958155d6764d707876d1d041936573f63b0b99c15e1dab3cfdb9be6127308a460321c66afede3b04e70018ef71e0677f397edf1aa484284766b
af84a12e2467477e365b0ea689af3e495cfb0552e1f67679e1301499f6e3853c0a0cafddc9f546eb879615d3497ec734de4bd95888ad74a08bbb5c4e585574aa
5b7578d663f9e1f789fd2e30db31cbf834ed1cbf6baf0c90c71a3890eae8af6348f52b10544a0a450566595875cbae152decee6e7767e9a3205919989d9dd690
d89fa1491c84e7cefdb22e368cd0c296879615d3497ec734de4bd95888ad74a06979814b01d82bd198581faa560275364df96c340fe2d5c33405ef4e01d21b15
82d68d2ff04cd84cf77c6456c86c0134dcc4fd439171a987b05cc6262f0d3098a78dca305af7cf10daf67458bbe5e423ecc3ddbcd6ee3b1c57f0963c8d997eb2
d9537431881c5c14fdb22e368cd0c296879615d3497ec734de4bd95888ad74a06979814b01d82bd198581faa560275364df96c340fe2d5c33405ef4e01d21b15
d7072740a938f0e723066849b8eb539d5b6c8660b4276d914ea0e19844c827cb1b34c8a9fc3a002bf6c57157062f5a99b6418aab31ad7c572412ea644c229fb7
d50720ce1441ffea9c0bfb1767750917b09e2116325bc9f175740271596acdb0608fba515dabb42127c5fecd5ca4eecb49353e93fbfda1dbbebda8502fb3af09
cbcd267fc4d0ee1edcdf7da510b2ded1f128bdb7ccce2792193403e6113155e21d55dd57f10b3354805604912ff1c905ad5c02caa0ee5fdbf11a397184e1c48f
*ZX SECTION
d16d7e56927f5361b15636f10019aadd0d17525d18b6bfe1fae02d31e21c16263de5f2dc00136d4457e2c5aa808513701fc7de3fb6efec134babb9656d63cfd7
f2b52bf76645a310d85488b95207f83d02d22680ca9d6c1bdcc4fd439171a987b05cc6262f0d3098a78dca305af7cf10daf67458bbe5e4234348db98125f1cb1
5348d892891872042b8f139ee29f97f1dcc4fd439171a987b05cc6262f0d3098a78dca305af7cf10daf67458bbe5e423ecc3ddbcd6ee3b1c57f0963c8d997eb2
af5b4d0bdc2fd9413e8c86ac459015f9879615d3497ec734de4bd95888ad74a06979814b01d82bd198581faa560275364df96c340fe2d5c33405ef4e01d21b15
4304b5b357f92925d343aa271cc7a61ff128bdb7ccce2792193403e6113155e21d55dd57f10b3354805604912ff1c905ad5c02caa0ee5fdbf11a397184e1c48f
ae1a57ddb2c2bbcf78ae7c159100eccb8c03e2a1196a4ab7fe4e8f3eafca67e8879615d3497ec734de4bd95888ad74a06979814b01d82bd13ac050840cc5118b
ff82660d5c3d6bef71d897d0178b0debf128bdb7ccce2792193403e6113155e21d55dd57f10b3354805604912ff1c905ad5c02caa0ee5fdbf11a397184e1c48f
67ad499bb15de782759418422a9cb90f78994531a4b59d2ddcc4fd439171a987b05cc6262f0d3098a78dca305af7cf10daf67458bbe5e4234348db98125f1cb1
*VTO SECTION
fbca307268d74314be875edc7e39820ee4e541cf1d84bb1cf128bdb7ccce2792193403e6113155e21d55dd57f10b3354805604912ff1c90522fc9237468c5f87
a006ac43859652e5afe5208b79809a5462d7fc06aea0b62bdcc4fd439171a987b05cc6262f0d3098a78dca305af7cf10daf67458bbe5e4234348db98125f1cb1
70f17df5e275e69845bb3ab2506a8ab108297a4e265dc3f9879615d3497ec734de4bd95888ad74a06979814b01d82bd198581faa56027536a2514940893ba777
8652137a4abf42f29fde8ea81c2a22abf128bdb7ccce2792193403e6113155e21d55dd57f10b3354805604912ff1c905ad5c02caa0ee5fdbf11a397184e1c48f
f4325bc49ace8c6110d671d24457d250f128bdb7ccce2792193403e6113155e21d55dd57f10b3354805604912ff1c905ad5c02caa0ee5fdbf11a397184e1c48f
d7072740a938f0e74d4c316bb96fb3cfa7604bfada1f9f37343e508984c1e73e27731ef8131c9221f128bdb7ccce2792193403e6113155e2bd24c369633e4e5d
9ba454874fb2cf677a50ff2fef4bb9d436806a8e381bf9a0b6418aab31ad7c57225ccf8dcaf66131dbf053cdabe8dd7ad174ef4eb1ddadf682b989a66a5e8d15
$CDNENCFINISH
.ENDS
*$
******************************************************************************************
* WB_CAP_TANTALUM SPICE MODEL
*
******************************************************************************************
* INPUTS: IC
*
.SUBCKT COUT 13 2 PARAMS: IC = 0
$CDNENCSTART
eee8c5c7a2bc4b01f045f303678664e7916da0bae22e8cb0bba041dd67c69ce448ea70148a9ac1670c8926c1ac5057c8ccfcd77bf87ca9dc186e1cdf7727665e
d100d6458c96c52dcd36153aa1bc61de989f20dcc429892ab852be25d28753c8f472f939747f37ff879615d3497ec734de4bd95888ad74a08bbb5c4e585574aa
839c1053317c87ede0cad9a0c0aa6c72989f20dcc429892a41f7c5610f64c94c7a81a557807d450e1d041936573f63b0b99c15e1dab3cfdb4bf483b1e9277e5b
5ac16735b3283a20505025e63e6159ab853a3830110f2591d442d9664dd695be7a81a557807d450e1d041936573f63b0b99c15e1dab3cfdb4bf483b1e9277e5b
d6ca2d994d097bcf4e38239aa93e72531d041936573f63b0b99c15e1dab3cfdb9be6127308a460321c66afede3b04e70018ef71e0677f397edf1aa484284766b
32de59ff773241db81160cfce6129b8fdcc4fd439171a987b05cc6262f0d3098a78dca305af7cf10daf67458bbe5e423ecc3ddbcd6ee3b1c57f0963c8d997eb2
65166807bb900273d5401611c409b4720be61742d77a1d35e2ceb370c9afb2fcb6418aab31ad7c57225ccf8dcaf66131dbf053cdabe8dd7a4d06d6ad92ebcbb7
9f8ca598def30485f621dcb39cd671250be61742d77a1d35e2ceb370c9afb2fcb6418aab31ad7c57225ccf8dcaf66131dbf053cdabe8dd7a4d06d6ad92ebcbb7
6bae732a4665c6a04d3bb9631f27c0517ea1ee05eee804345175e66f17e293457a81a557807d450e1d041936573f63b0b99c15e1dab3cfdb4bf483b1e9277e5b
3d32437430e245de09386a510a338778d41f692eb3ab435a75740271596acdb0608fba515dabb42127c5fecd5ca4eecb49353e93fbfda1dbbebda8502fb3af09
4ef6485af2d1971ae9fd34a089c33029f128bdb7ccce2792193403e6113155e21d55dd57f10b3354805604912ff1c905ad5c02caa0ee5fdbf11a397184e1c48f
319bb375203d538dee943d295feafb851d041936573f63b0b99c15e1dab3cfdb9be6127308a460321c66afede3b04e70018ef71e0677f397edf1aa484284766b
efd081fd85ed5e22ee943d295feafb851d041936573f63b0b99c15e1dab3cfdb9be6127308a460321c66afede3b04e70018ef71e0677f397edf1aa484284766b
e17958ee9a96a093ee943d295feafb851d041936573f63b0b99c15e1dab3cfdb9be6127308a460321c66afede3b04e70018ef71e0677f397edf1aa484284766b
0a5b16f43323dddbee943d295feafb851d041936573f63b0b99c15e1dab3cfdb9be6127308a460321c66afede3b04e70018ef71e0677f397edf1aa484284766b
29c7f464b40c970ff30425a0253fc013f128bdb7ccce2792193403e6113155e21d55dd57f10b3354805604912ff1c905ad5c02caa0ee5fdbf11a397184e1c48f
14ccbada16d17a18a7f7ef0971eb00fe34ed1cbf6baf0c90c71a3890eae8af6348f52b10544a0a450566595875cbae152decee6e7767e9a3205919989d9dd690
5baea176dc4e471eda1e6c1b6b39101ae24b78bf5df7815fd442d9664dd695be7a81a557807d450e1d041936573f63b0b99c15e1dab3cfdb4bf483b1e9277e5b
$CDNENCFINISH